<?xml version="1.0" encoding="UTF-8"?>

<!-- generated on 2025-05-12 13:48:02 by Eclipse SUMO netedit Version 1.18.0
<configuration xmlns:xsi="http://www.w3.org/2001/XMLSchema-instance" xsi:noNamespaceSchemaLocation="http://sumo.dlr.de/xsd/neteditConfiguration.xsd">

    <input>
        <sumocfg-file value="/mnt/c/Users/User/Desktop/eclipse-mosaic-25.0/scenarios/tutorial/sumo/tutorial.sumocfg"/>
        <route-files value="/mnt/c/Users/User/Desktop/eclipse-mosaic-25.0/scenarios/tutorial/sumo/tutorial.rou.xml"/>
        <sumo-net-file value="/mnt/c/Users/User/Desktop/eclipse-mosaic-25.0/scenarios/tutorial/sumo/tutorial.net.xml"/>
    </input>

    <output>
        <output-file value="/mnt/c/Users/User/Desktop/eclipse-mosaic-25.0/scenarios/tutorial/sumo/tutorial.net.xml"/>
    </output>

    <processing>
        <offset.disable-normalization value="true"/>
    </processing>

    <junctions>
        <no-turnarounds value="true"/>
    </junctions>

    <netedit>
        <new-network value="false"/>
    </netedit>

</configuration>
-->

<net version="1.16" junctionCornerDetail="5" limitTurnSpeed="5.50" xmlns:xsi="http://www.w3.org/2001/XMLSchema-instance" xsi:noNamespaceSchemaLocation="http://sumo.dlr.de/xsd/net_file.xsd">

    <location netOffset="-422495.65,4013353.01" convBoundary="-400.00,0.00,100.00,100.00" origBoundary="422495.650000,4013353.006000,422495.650000,4013353.006000" projParameter="+proj=utm +zone=27 +ellps=WGS84 +datum=WGS84 +units=m +no_defs"/>

    <edge id=":J0_0" function="internal">
        <lane id=":J0_0_0" index="0" speed="40.00" length="20.80" shape="10.40,104.80 -10.40,104.80"/>
        <lane id=":J0_0_1" index="1" speed="40.00" length="20.80" shape="10.40,101.60 -10.40,101.60"/>
    </edge>
    <edge id=":J0_2" function="internal">
        <lane id=":J0_2_0" index="0" speed="9.26" length="5.01" shape="10.40,101.60 5.44,100.89"/>
    </edge>
    <edge id=":J0_8" function="internal">
        <lane id=":J0_8_0" index="0" speed="9.26" length="14.34" shape="5.44,100.89 5.15,100.85 1.40,98.60 -0.85,94.85 -1.60,89.60"/>
    </edge>
    <edge id=":J0_3" function="internal">
        <lane id=":J0_3_0" index="0" speed="6.51" length="9.03" shape="4.80,89.60 5.15,92.05 6.20,93.80 7.95,94.85 10.40,95.20"/>
    </edge>
    <edge id=":J0_4" function="internal">
        <lane id=":J0_4_0" index="0" speed="9.26" length="19.35" shape="1.60,89.60 0.85,94.85 -1.40,98.60 -5.15,100.85 -10.40,101.60"/>
    </edge>
    <edge id=":J0_5" function="internal">
        <lane id=":J0_5_0" index="0" speed="6.51" length="9.03" shape="-10.40,95.20 -7.95,94.85 -6.20,93.80 -5.15,92.05 -4.80,89.60"/>
    </edge>
    <edge id=":J0_6" function="internal">
        <lane id=":J0_6_0" index="0" speed="40.00" length="20.80" shape="-10.40,95.20 10.40,95.20"/>
        <lane id=":J0_6_1" index="1" speed="40.00" length="20.80" shape="-10.40,98.40 10.40,98.40"/>
    </edge>
    <edge id=":J1_0" function="internal">
        <lane id=":J1_0_0" index="0" speed="5.47" length="9.74" shape="-4.80,19.45 -5.15,16.36 -6.19,14.94 -7.93,15.21 -10.36,17.15"/>
    </edge>
    <edge id=":J1_1" function="internal">
        <lane id=":J1_1_0" index="0" speed="10.18" length="23.63" shape="-4.80,19.45 -5.72,13.04 -8.46,8.46 -13.04,5.72 -19.45,4.80"/>
        <lane id=":J1_1_1" index="1" speed="11.20" length="28.79" shape="-1.60,19.45 -2.72,11.64 -6.06,6.06 -11.64,2.72 -19.45,1.60"/>
    </edge>
    <edge id=":J1_3" function="internal">
        <lane id=":J1_3_0" index="0" speed="8.14" length="23.57" shape="-1.60,19.45 -0.01,13.22 4.01,9.69 9.35,9.34 14.89,12.62"/>
    </edge>
    <edge id=":J1_4" function="internal">
        <lane id=":J1_4_0" index="0" speed="5.47" length="9.74" shape="10.36,17.15 7.93,15.21 6.19,14.94 5.15,16.36 4.80,19.45"/>
    </edge>
    <edge id=":J1_5" function="internal">
        <lane id=":J1_5_0" index="0" speed="10.71" length="26.26" shape="10.36,17.15 4.19,12.27 -1.70,10.27 -7.30,11.14 -12.62,14.89"/>
    </edge>
    <edge id=":J1_6" function="internal">
        <lane id=":J1_6_0" index="0" speed="18.77" length="33.11" shape="10.36,17.15 3.87,11.75 -3.27,7.89 -11.04,5.57 -19.45,4.80"/>
        <lane id=":J1_6_1" index="1" speed="19.46" length="35.63" shape="12.62,14.89 5.64,9.07 -2.04,4.92 -10.40,2.43 -19.45,1.60"/>
    </edge>
    <edge id=":J1_8" function="internal">
        <lane id=":J1_8_0" index="0" speed="20.77" length="40.65" shape="-19.45,-4.80 -9.12,-3.85 0.42,-1.01 9.18,3.73 17.15,10.36"/>
    </edge>
    <edge id=":J1_9" function="internal">
        <lane id=":J1_9_0" index="0" speed="12.99" length="21.12" shape="-19.45,-4.80 -8.84,-3.28 -1.26,1.26 -0.46,2.61"/>
        <lane id=":J1_9_1" index="1" speed="12.13" length="9.65" shape="-19.45,-1.60 -10.24,-0.28 -9.95,-0.11"/>
    </edge>
    <edge id=":J1_11" function="internal">
        <lane id=":J1_11_0" index="0" speed="8.14" length="4.43" shape="-19.45,-1.60 -15.16,-0.51"/>
    </edge>
    <edge id=":J1_16" function="internal">
        <lane id=":J1_16_0" index="0" speed="12.99" length="17.99" shape="-0.46,2.61 3.28,8.84 4.80,19.45"/>
    </edge>
    <edge id=":J1_17" function="internal">
        <lane id=":J1_17_0" index="0" speed="12.13" length="24.30" shape="-9.95,-0.11 -3.66,3.66 0.28,10.24 1.60,19.45"/>
    </edge>
    <edge id=":J1_18" function="internal">
        <lane id=":J1_18_0" index="0" speed="8.14" length="19.14" shape="-15.16,-0.51 -13.22,-0.01 -9.69,4.01 -9.34,9.35 -12.62,14.89"/>
    </edge>
    <edge id=":J1_12" function="internal">
        <lane id=":J1_12_0" index="0" speed="5.47" length="9.74" shape="-17.15,10.36 -15.21,7.93 -14.94,6.19 -16.36,5.15 -19.45,4.80"/>
    </edge>
    <edge id=":J1_13" function="internal">
        <lane id=":J1_13_0" index="0" speed="12.99" length="39.11" shape="-17.15,10.36 -8.57,3.93 0.00,1.79 8.57,3.93 17.15,10.36"/>
        <lane id=":J1_13_1" index="1" speed="12.13" length="33.95" shape="-14.89,12.62 -7.44,7.04 0.00,5.18 7.44,7.04 14.89,12.62"/>
    </edge>
    <edge id=":J1_15" function="internal">
        <lane id=":J1_15_0" index="0" speed="8.14" length="23.57" shape="-14.89,12.62 -9.35,9.34 -4.01,9.69 0.01,13.22 1.60,19.45"/>
    </edge>
    <edge id=":J10_0" function="internal">
        <lane id=":J10_0_0" index="0" speed="5.47" length="9.74" shape="-304.80,19.45 -305.15,16.36 -306.19,14.94 -307.93,15.21 -310.36,17.15"/>
    </edge>
    <edge id=":J10_1" function="internal">
        <lane id=":J10_1_0" index="0" speed="12.99" length="39.11" shape="-304.80,19.45 -303.28,8.84 -298.74,1.26 -291.16,-3.28 -280.55,-4.80"/>
    </edge>
    <edge id=":J10_2" function="internal">
        <lane id=":J10_2_0" index="0" speed="12.99" length="36.19" shape="-304.80,19.45 -303.28,8.84 -298.74,1.26 -291.16,-3.28 -283.44,-4.39"/>
        <lane id=":J10_2_1" index="1" speed="12.13" length="31.03" shape="-301.60,19.45 -300.28,10.24 -296.34,3.66 -289.76,-0.28 -283.44,-1.19"/>
    </edge>
    <edge id=":J10_4" function="internal">
        <lane id=":J10_4_0" index="0" speed="8.14" length="6.43" shape="-301.60,19.45 -300.01,13.22"/>
    </edge>
    <edge id=":J10_25" function="internal">
        <lane id=":J10_25_0" index="0" speed="12.99" length="2.92" shape="-283.44,-4.39 -280.55,-4.80"/>
    </edge>
    <edge id=":J10_26" function="internal">
        <lane id=":J10_26_0" index="0" speed="12.13" length="2.92" shape="-283.44,-1.19 -280.55,-1.60"/>
    </edge>
    <edge id=":J10_27" function="internal">
        <lane id=":J10_27_0" index="0" speed="8.14" length="17.13" shape="-300.01,13.22 -295.99,9.69 -290.65,9.34 -285.11,12.62"/>
    </edge>
    <edge id=":J10_5" function="internal">
        <lane id=":J10_5_0" index="0" speed="5.47" length="9.74" shape="-289.64,17.15 -292.07,15.21 -293.81,14.94 -294.85,16.36 -295.20,19.45"/>
    </edge>
    <edge id=":J10_6" function="internal">
        <lane id=":J10_6_0" index="0" speed="10.18" length="23.63" shape="-289.64,17.15 -294.82,13.26 -300.00,11.97 -305.18,13.26 -310.36,17.15"/>
        <lane id=":J10_6_1" index="1" speed="11.20" length="28.79" shape="-287.38,14.89 -293.69,10.15 -300.00,8.57 -306.31,10.15 -312.62,14.89"/>
    </edge>
    <edge id=":J10_8" function="internal">
        <lane id=":J10_8_0" index="0" speed="7.62" length="20.41" shape="-287.38,14.89 -288.92,10.54 -287.77,5.07 -284.72,0.38 -280.55,-1.60"/>
    </edge>
    <edge id=":J10_9" function="internal">
        <lane id=":J10_9_0" index="0" speed="8.14" length="23.57" shape="-287.38,14.89 -290.66,9.35 -290.31,4.01 -286.78,-0.01 -280.55,-1.60"/>
    </edge>
    <edge id=":J10_10" function="internal">
        <lane id=":J10_10_0" index="0" speed="5.47" length="9.74" shape="-280.55,4.80 -283.64,5.15 -285.06,6.19 -284.79,7.93 -282.85,10.36"/>
    </edge>
    <edge id=":J10_11" function="internal">
        <lane id=":J10_11_0" index="0" speed="10.18" length="23.63" shape="-280.55,4.80 -286.96,5.72 -291.54,8.46 -294.28,13.04 -295.20,19.45"/>
    </edge>
    <edge id=":J10_12" function="internal">
        <lane id=":J10_12_0" index="0" speed="18.77" length="33.11" shape="-280.55,4.80 -288.96,5.57 -296.73,7.89 -303.87,11.75 -310.36,17.15"/>
        <lane id=":J10_12_1" index="1" speed="19.46" length="35.63" shape="-280.55,1.60 -289.60,2.43 -297.96,4.92 -305.64,9.07 -312.62,14.89"/>
    </edge>
    <edge id=":J10_14" function="internal">
        <lane id=":J10_14_0" index="0" speed="3.24" length="1.51" shape="-280.55,1.60 -280.55,0.09"/>
    </edge>
    <edge id=":J10_28" function="internal">
        <lane id=":J10_28_0" index="0" speed="3.24" length="1.69" shape="-280.55,0.09 -280.55,-1.60"/>
    </edge>
    <edge id=":J10_15" function="internal">
        <lane id=":J10_15_0" index="0" speed="5.47" length="9.74" shape="-280.55,4.80 -283.64,5.15 -285.06,6.19 -284.79,7.93 -282.85,10.36"/>
    </edge>
    <edge id=":J10_16" function="internal">
        <lane id=":J10_16_0" index="0" speed="10.71" length="26.26" shape="-280.55,4.80 -288.36,5.72 -293.94,8.46 -297.28,13.04 -298.40,19.45"/>
    </edge>
    <edge id=":J10_17" function="internal">
        <lane id=":J10_17_0" index="0" speed="18.77" length="33.11" shape="-280.55,4.80 -288.96,5.57 -296.73,7.89 -303.87,11.75 -310.36,17.15"/>
        <lane id=":J10_17_1" index="1" speed="19.46" length="35.63" shape="-280.55,1.60 -289.60,2.43 -297.96,4.92 -305.64,9.07 -312.62,14.89"/>
    </edge>
    <edge id=":J10_19" function="internal">
        <lane id=":J10_19_0" index="0" speed="4.08" length="6.40" shape="-280.55,1.60 -280.55,-4.80"/>
    </edge>
    <edge id=":J10_20" function="internal">
        <lane id=":J10_20_0" index="0" speed="20.77" length="40.65" shape="-317.15,10.36 -309.18,3.73 -300.42,-1.01 -290.88,-3.85 -280.55,-4.80"/>
    </edge>
    <edge id=":J10_21" function="internal">
        <lane id=":J10_21_0" index="0" speed="20.77" length="40.65" shape="-317.15,10.36 -309.18,3.73 -300.42,-1.01 -290.88,-3.85 -280.55,-4.80"/>
        <lane id=":J10_21_1" index="1" speed="20.13" length="38.14" shape="-314.89,12.62 -307.41,6.40 -299.19,1.96 -290.24,-0.71 -280.55,-1.60"/>
    </edge>
    <edge id=":J10_23" function="internal">
        <lane id=":J10_23_0" index="0" speed="12.13" length="9.65" shape="-314.89,12.62 -307.44,7.04 -307.11,6.96"/>
    </edge>
    <edge id=":J10_24" function="internal">
        <lane id=":J10_24_0" index="0" speed="8.14" length="4.43" shape="-314.89,12.62 -311.08,10.36"/>
    </edge>
    <edge id=":J10_29" function="internal">
        <lane id=":J10_29_0" index="0" speed="12.13" length="24.30" shape="-307.11,6.96 -300.00,5.18 -292.56,7.04 -285.11,12.62"/>
    </edge>
    <edge id=":J10_30" function="internal">
        <lane id=":J10_30_0" index="0" speed="8.14" length="19.14" shape="-311.08,10.36 -309.35,9.34 -304.01,9.69 -299.99,13.22 -298.40,19.45"/>
    </edge>
    <edge id=":J2_0" function="internal">
        <lane id=":J2_0_0" index="0" speed="8.73" length="27.33" shape="92.47,85.68 96.28,92.10 95.87,98.29 91.78,102.96 84.55,104.80"/>
        <lane id=":J2_0_1" index="1" speed="8.20" length="23.92" shape="90.21,87.94 94.97,93.92 95.62,98.19 92.15,100.75 84.55,101.60"/>
    </edge>
    <edge id=":J2_2" function="internal">
        <lane id=":J2_2_0" index="0" speed="4.12" length="4.78" shape="84.55,95.20 86.07,95.03 86.76,94.52 86.63,93.66 85.68,92.47"/>
        <lane id=":J2_2_1" index="1" speed="6.49" length="14.35" shape="84.55,98.40 89.11,97.89 91.19,96.35 90.80,93.79 87.94,90.21"/>
    </edge>
    <edge id=":J3_0" function="internal">
        <lane id=":J3_0_0" index="0" speed="40.00" length="29.85" shape="-80.55,104.80 -110.40,104.80"/>
        <lane id=":J3_0_1" index="1" speed="40.00" length="29.85" shape="-80.55,101.60 -110.40,101.60"/>
    </edge>
    <edge id=":J3_2" function="internal">
        <lane id=":J3_2_0" index="0" speed="12.13" length="5.01" shape="-80.55,101.60 -85.51,100.89"/>
    </edge>
    <edge id=":J3_3" function="internal">
        <lane id=":J3_3_0" index="0" speed="8.14" length="2.95" shape="-80.55,101.60 -83.40,100.87"/>
    </edge>
    <edge id=":J3_16" function="internal">
        <lane id=":J3_16_0" index="0" speed="12.13" length="28.94" shape="-85.51,100.89 -89.76,100.28 -96.34,96.34 -100.28,89.76 -101.60,80.55"/>
    </edge>
    <edge id=":J3_17" function="internal">
        <lane id=":J3_17_0" index="0" speed="8.14" length="20.62" shape="-83.40,100.87 -86.78,100.01 -90.31,95.99 -90.66,90.65 -87.38,85.11"/>
    </edge>
    <edge id=":J3_4" function="internal">
        <lane id=":J3_4_0" index="0" speed="5.47" length="9.74" shape="-82.85,89.64 -84.79,92.07 -85.06,93.81 -83.64,94.85 -80.55,95.20"/>
    </edge>
    <edge id=":J3_5" function="internal">
        <lane id=":J3_5_0" index="0" speed="18.50" length="32.17" shape="-82.85,89.64 -90.26,96.27 -97.32,101.01 -104.03,103.85 -110.40,104.80"/>
        <lane id=":J3_5_1" index="1" speed="17.78" length="29.67" shape="-85.11,87.38 -92.03,93.60 -98.55,98.04 -104.67,100.71 -110.40,101.60"/>
    </edge>
    <edge id=":J3_7" function="internal">
        <lane id=":J3_7_0" index="0" speed="8.14" length="23.57" shape="-85.11,87.38 -90.65,90.66 -95.99,90.31 -100.01,86.78 -101.60,80.55"/>
    </edge>
    <edge id=":J3_8" function="internal">
        <lane id=":J3_8_0" index="0" speed="5.47" length="9.74" shape="-95.20,80.55 -94.85,83.64 -93.81,85.06 -92.07,84.79 -89.64,82.85"/>
    </edge>
    <edge id=":J3_9" function="internal">
        <lane id=":J3_9_0" index="0" speed="10.18" length="23.63" shape="-95.20,80.55 -94.28,86.96 -91.54,91.54 -86.96,94.28 -80.55,95.20"/>
        <lane id=":J3_9_1" index="1" speed="11.20" length="28.79" shape="-98.40,80.55 -97.28,88.36 -93.94,93.94 -88.36,97.28 -80.55,98.40"/>
    </edge>
    <edge id=":J3_11" function="internal">
        <lane id=":J3_11_0" index="0" speed="10.87" length="27.05" shape="-98.40,80.55 -99.15,89.76 -101.40,96.34 -105.15,100.28 -110.40,101.60"/>
    </edge>
    <edge id=":J3_12" function="internal">
        <lane id=":J3_12_0" index="0" speed="8.71" length="16.99" shape="-110.40,95.20 -107.95,94.28 -106.20,91.54 -105.15,86.96 -104.80,80.55"/>
    </edge>
    <edge id=":J3_13" function="internal">
        <lane id=":J3_13_0" index="0" speed="16.59" length="25.79" shape="-110.40,95.20 -104.11,94.57 -98.18,92.68 -92.60,89.53 -87.38,85.11"/>
    </edge>
    <edge id=":J3_14" function="internal">
        <lane id=":J3_14_0" index="0" speed="40.00" length="29.85" shape="-110.40,95.20 -80.55,95.20"/>
        <lane id=":J3_14_1" index="1" speed="40.00" length="29.85" shape="-110.40,98.40 -80.55,98.40"/>
    </edge>
    <edge id=":J4_0" function="internal">
        <lane id=":J4_0_0" index="0" speed="5.47" length="9.74" shape="-104.80,19.45 -105.15,16.36 -106.19,14.94 -107.93,15.21 -110.36,17.15"/>
    </edge>
    <edge id=":J4_1" function="internal">
        <lane id=":J4_1_0" index="0" speed="10.18" length="23.63" shape="-104.80,19.45 -105.72,13.04 -108.46,8.46 -113.04,5.72 -119.45,4.80"/>
    </edge>
    <edge id=":J4_2" function="internal">
        <lane id=":J4_2_0" index="0" speed="10.18" length="23.63" shape="-104.80,19.45 -105.72,13.04 -108.46,8.46 -113.04,5.72 -119.45,4.80"/>
        <lane id=":J4_2_1" index="1" speed="11.20" length="28.79" shape="-101.60,19.45 -102.72,11.64 -106.06,6.06 -111.64,2.72 -119.45,1.60"/>
    </edge>
    <edge id=":J4_4" function="internal">
        <lane id=":J4_4_0" index="0" speed="10.87" length="3.12" shape="-101.60,19.45 -101.35,16.34"/>
    </edge>
    <edge id=":J4_26" function="internal">
        <lane id=":J4_26_0" index="0" speed="10.87" length="23.93" shape="-101.35,16.34 -100.85,10.24 -98.60,3.66 -94.85,-0.28 -89.60,-1.60"/>
    </edge>
    <edge id=":J4_5" function="internal">
        <lane id=":J4_5_0" index="0" speed="8.71" length="16.99" shape="-89.60,4.80 -92.05,5.72 -93.80,8.46 -94.85,13.04 -95.20,19.45"/>
    </edge>
    <edge id=":J4_6" function="internal">
        <lane id=":J4_6_0" index="0" speed="16.23" length="24.66" shape="-89.60,4.80 -94.05,5.57 -99.00,7.89 -104.43,11.75 -110.36,17.15"/>
    </edge>
    <edge id=":J4_7" function="internal">
        <lane id=":J4_7_0" index="0" speed="40.00" length="29.85" shape="-89.60,4.80 -119.45,4.80"/>
        <lane id=":J4_7_1" index="1" speed="40.00" length="29.85" shape="-89.60,1.60 -119.45,1.60"/>
    </edge>
    <edge id=":J4_9" function="internal">
        <lane id=":J4_9_0" index="0" speed="40.00" length="29.95" shape="-89.60,1.60 -97.08,2.10 -104.53,3.20 -111.97,4.30 -119.45,4.80"/>
        <lane id=":J4_9_1" index="1" speed="40.00" length="29.95" shape="-89.60,1.60 -119.45,1.60"/>
    </edge>
    <edge id=":J4_11" function="internal">
        <lane id=":J4_11_0" index="0" speed="40.00" length="29.85" shape="-119.45,-4.80 -89.60,-4.80"/>
        <lane id=":J4_11_1" index="1" speed="40.00" length="29.85" shape="-119.45,-1.60 -89.60,-1.60"/>
    </edge>
    <edge id=":J4_13" function="internal">
        <lane id=":J4_13_0" index="0" speed="12.57" length="5.74" shape="-119.45,-1.60 -113.75,-0.89"/>
    </edge>
    <edge id=":J4_14" function="internal">
        <lane id=":J4_14_0" index="0" speed="7.62" length="2.95" shape="-119.45,-1.60 -116.79,-0.33"/>
    </edge>
    <edge id=":J4_15" function="internal">
        <lane id=":J4_15_0" index="0" speed="3.24" length="1.60" shape="-119.45,-1.60 -119.45,0.00"/>
    </edge>
    <edge id=":J4_27" function="internal">
        <lane id=":J4_27_0" index="0" speed="12.57" length="30.82" shape="-113.75,-0.89 -108.84,-0.28 -101.26,3.66 -96.72,10.24 -95.20,19.45"/>
    </edge>
    <edge id=":J4_28" function="internal">
        <lane id=":J4_28_0" index="0" speed="7.62" length="17.47" shape="-116.79,-0.33 -115.28,0.38 -112.23,5.07 -111.08,10.54 -112.62,14.89"/>
    </edge>
    <edge id=":J4_29" function="internal">
        <lane id=":J4_29_0" index="0" speed="3.24" length="1.60" shape="-119.45,0.00 -119.45,1.60"/>
    </edge>
    <edge id=":J4_16" function="internal">
        <lane id=":J4_16_0" index="0" speed="40.00" length="29.85" shape="-119.45,-4.80 -89.60,-4.80"/>
    </edge>
    <edge id=":J4_17" function="internal">
        <lane id=":J4_17_0" index="0" speed="12.99" length="39.11" shape="-119.45,-4.80 -108.84,-3.28 -101.26,1.26 -96.72,8.84 -95.20,19.45"/>
        <lane id=":J4_17_1" index="1" speed="12.13" length="33.95" shape="-119.45,-1.60 -110.24,-0.28 -103.66,3.66 -99.72,10.24 -98.40,19.45"/>
    </edge>
    <edge id=":J4_19" function="internal">
        <lane id=":J4_19_0" index="0" speed="7.62" length="4.87" shape="-119.45,-1.60 -115.28,0.38 -115.14,0.60"/>
    </edge>
    <edge id=":J4_20" function="internal">
        <lane id=":J4_20_0" index="0" speed="3.24" length="1.71" shape="-119.45,-1.60 -119.45,0.11"/>
    </edge>
    <edge id=":J4_30" function="internal">
        <lane id=":J4_30_0" index="0" speed="7.62" length="15.54" shape="-115.14,0.60 -112.23,5.07 -111.08,10.54 -112.62,14.89"/>
    </edge>
    <edge id=":J4_31" function="internal">
        <lane id=":J4_31_0" index="0" speed="3.24" length="1.49" shape="-119.45,0.11 -119.45,1.60"/>
    </edge>
    <edge id=":J4_21" function="internal">
        <lane id=":J4_21_0" index="0" speed="5.47" length="9.74" shape="-117.15,10.36 -115.21,7.93 -114.94,6.19 -116.36,5.15 -119.45,4.80"/>
    </edge>
    <edge id=":J4_22" function="internal">
        <lane id=":J4_22_0" index="0" speed="5.47" length="9.74" shape="-117.15,10.36 -115.21,7.93 -114.94,6.19 -116.36,5.15 -119.45,4.80"/>
    </edge>
    <edge id=":J4_23" function="internal">
        <lane id=":J4_23_0" index="0" speed="18.50" length="32.17" shape="-117.15,10.36 -109.74,3.73 -102.68,-1.01 -95.97,-3.85 -89.60,-4.80"/>
        <lane id=":J4_23_1" index="1" speed="17.78" length="29.67" shape="-114.89,12.62 -107.97,6.40 -101.45,1.96 -95.33,-0.71 -89.60,-1.60"/>
    </edge>
    <edge id=":J4_25" function="internal">
        <lane id=":J4_25_0" index="0" speed="8.14" length="23.57" shape="-114.89,12.62 -109.35,9.34 -104.01,9.69 -99.99,13.22 -98.40,19.45"/>
    </edge>
    <edge id=":J5_0" function="internal">
        <lane id=":J5_0_0" index="0" speed="5.47" length="9.74" shape="-204.80,19.45 -205.15,16.36 -206.19,14.94 -207.93,15.21 -210.36,17.15"/>
    </edge>
    <edge id=":J5_1" function="internal">
        <lane id=":J5_1_0" index="0" speed="10.18" length="23.63" shape="-204.80,19.45 -205.72,13.04 -208.46,8.46 -213.04,5.72 -219.45,4.80"/>
    </edge>
    <edge id=":J5_2" function="internal">
        <lane id=":J5_2_0" index="0" speed="10.18" length="23.63" shape="-204.80,19.45 -205.72,13.04 -208.46,8.46 -213.04,5.72 -219.45,4.80"/>
        <lane id=":J5_2_1" index="1" speed="11.20" length="28.79" shape="-201.60,19.45 -202.72,11.64 -206.06,6.06 -211.64,2.72 -219.45,1.60"/>
    </edge>
    <edge id=":J5_4" function="internal">
        <lane id=":J5_4_0" index="0" speed="10.87" length="27.05" shape="-201.60,19.45 -200.85,10.24 -198.60,3.66 -194.85,-0.28 -189.60,-1.60"/>
    </edge>
    <edge id=":J5_5" function="internal">
        <lane id=":J5_5_0" index="0" speed="8.71" length="16.99" shape="-189.60,4.80 -192.05,5.72 -193.80,8.46 -194.85,13.04 -195.20,19.45"/>
    </edge>
    <edge id=":J5_6" function="internal">
        <lane id=":J5_6_0" index="0" speed="16.23" length="24.66" shape="-189.60,4.80 -194.05,5.57 -199.00,7.89 -204.43,11.75 -210.36,17.15"/>
    </edge>
    <edge id=":J5_7" function="internal">
        <lane id=":J5_7_0" index="0" speed="40.00" length="29.85" shape="-189.60,4.80 -219.45,4.80"/>
        <lane id=":J5_7_1" index="1" speed="40.00" length="29.85" shape="-189.60,1.60 -219.45,1.60"/>
    </edge>
    <edge id=":J5_9" function="internal">
        <lane id=":J5_9_0" index="0" speed="40.00" length="29.95" shape="-189.60,1.60 -197.08,2.10 -204.53,3.20 -211.97,4.30 -219.45,4.80"/>
        <lane id=":J5_9_1" index="1" speed="40.00" length="29.95" shape="-189.60,1.60 -219.45,1.60"/>
    </edge>
    <edge id=":J5_11" function="internal">
        <lane id=":J5_11_0" index="0" speed="40.00" length="29.85" shape="-219.45,-4.80 -189.60,-4.80"/>
    </edge>
    <edge id=":J5_12" function="internal">
        <lane id=":J5_12_0" index="0" speed="12.99" length="39.11" shape="-219.45,-4.80 -208.84,-3.28 -201.26,1.26 -196.72,8.84 -195.20,19.45"/>
        <lane id=":J5_12_1" index="1" speed="12.13" length="33.95" shape="-219.45,-1.60 -210.24,-0.28 -203.66,3.66 -199.72,10.24 -198.40,19.45"/>
    </edge>
    <edge id=":J5_14" function="internal">
        <lane id=":J5_14_0" index="0" speed="7.62" length="20.41" shape="-219.45,-1.60 -215.28,0.38 -212.23,5.07 -211.08,10.54 -212.62,14.89"/>
    </edge>
    <edge id=":J5_15" function="internal">
        <lane id=":J5_15_0" index="0" speed="3.24" length="3.20" shape="-219.45,-1.60 -219.45,1.60"/>
    </edge>
    <edge id=":J5_16" function="internal">
        <lane id=":J5_16_0" index="0" speed="40.00" length="29.85" shape="-219.45,-4.80 -189.60,-4.80"/>
        <lane id=":J5_16_1" index="1" speed="40.00" length="29.85" shape="-219.45,-1.60 -189.60,-1.60"/>
    </edge>
    <edge id=":J5_18" function="internal">
        <lane id=":J5_18_0" index="0" speed="12.13" length="33.95" shape="-219.45,-1.60 -210.24,-0.28 -203.66,3.66 -199.72,10.24 -198.40,19.45"/>
    </edge>
    <edge id=":J5_19" function="internal">
        <lane id=":J5_19_0" index="0" speed="7.62" length="20.41" shape="-219.45,-1.60 -215.28,0.38 -212.23,5.07 -211.08,10.54 -212.62,14.89"/>
    </edge>
    <edge id=":J5_20" function="internal">
        <lane id=":J5_20_0" index="0" speed="4.08" length="6.40" shape="-219.45,-1.60 -219.45,4.80"/>
    </edge>
    <edge id=":J5_21" function="internal">
        <lane id=":J5_21_0" index="0" speed="5.47" length="9.74" shape="-217.15,10.36 -215.21,7.93 -214.94,6.19 -216.36,5.15 -219.45,4.80"/>
    </edge>
    <edge id=":J5_22" function="internal">
        <lane id=":J5_22_0" index="0" speed="5.47" length="9.74" shape="-217.15,10.36 -215.21,7.93 -214.94,6.19 -216.36,5.15 -219.45,4.80"/>
    </edge>
    <edge id=":J5_23" function="internal">
        <lane id=":J5_23_0" index="0" speed="18.50" length="32.17" shape="-217.15,10.36 -209.74,3.73 -202.68,-1.01 -195.97,-3.85 -189.60,-4.80"/>
        <lane id=":J5_23_1" index="1" speed="17.78" length="29.67" shape="-214.89,12.62 -207.97,6.40 -201.45,1.96 -195.33,-0.71 -189.60,-1.60"/>
    </edge>
    <edge id=":J5_25" function="internal">
        <lane id=":J5_25_0" index="0" speed="8.14" length="23.57" shape="-214.89,12.62 -209.35,9.34 -204.01,9.69 -199.99,13.22 -198.40,19.45"/>
    </edge>
    <edge id=":J6_0" function="internal">
        <lane id=":J6_0_0" index="0" speed="40.00" length="38.97" shape="-180.55,104.80 -219.45,104.80"/>
        <lane id=":J6_0_1" index="1" speed="40.00" length="38.97" shape="-180.55,104.80 -219.45,101.60"/>
    </edge>
    <edge id=":J6_2" function="internal">
        <lane id=":J6_2_0" index="0" speed="40.00" length="38.90" shape="-180.55,104.80 -219.45,104.80"/>
        <lane id=":J6_2_1" index="1" speed="40.00" length="38.90" shape="-180.55,101.60 -219.45,101.60"/>
    </edge>
    <edge id=":J6_4" function="internal">
        <lane id=":J6_4_0" index="0" speed="20.13" length="7.70" shape="-180.55,101.60 -188.22,100.90"/>
    </edge>
    <edge id=":J6_5" function="internal">
        <lane id=":J6_5_0" index="0" speed="12.13" length="5.01" shape="-180.55,101.60 -185.51,100.89"/>
    </edge>
    <edge id=":J6_6" function="internal">
        <lane id=":J6_6_0" index="0" speed="8.14" length="2.95" shape="-180.55,101.60 -183.40,100.87"/>
    </edge>
    <edge id=":J6_37" function="internal">
        <lane id=":J6_37_0" index="0" speed="20.13" length="30.44" shape="-188.22,100.90 -190.24,100.71 -199.19,98.04 -207.41,93.60 -214.89,87.38"/>
    </edge>
    <edge id=":J6_38" function="internal">
        <lane id=":J6_38_0" index="0" speed="12.13" length="28.94" shape="-185.51,100.89 -189.76,100.28 -196.34,96.34 -200.28,89.76 -201.60,80.55"/>
    </edge>
    <edge id=":J6_39" function="internal">
        <lane id=":J6_39_0" index="0" speed="8.14" length="20.62" shape="-183.40,100.87 -186.78,100.01 -190.31,95.99 -190.66,90.65 -187.38,85.11"/>
    </edge>
    <edge id=":J6_7" function="internal">
        <lane id=":J6_7_0" index="0" speed="5.47" length="9.74" shape="-182.85,89.64 -184.79,92.07 -185.06,93.81 -183.64,94.85 -180.55,95.20"/>
    </edge>
    <edge id=":J6_8" function="internal">
        <lane id=":J6_8_0" index="0" speed="20.77" length="5.11" shape="-182.85,89.64 -186.78,92.91"/>
    </edge>
    <edge id=":J6_9" function="internal">
        <lane id=":J6_9_0" index="0" speed="20.77" length="5.11" shape="-182.85,89.64 -186.78,92.91"/>
        <lane id=":J6_9_1" index="1" speed="20.13" length="8.65" shape="-185.11,87.38 -191.76,92.91"/>
    </edge>
    <edge id=":J6_11" function="internal">
        <lane id=":J6_11_0" index="0" speed="12.13" length="14.47" shape="-185.11,87.38 -192.56,92.96 -197.57,94.21"/>
    </edge>
    <edge id=":J6_12" function="internal">
        <lane id=":J6_12_0" index="0" speed="8.14" length="5.86" shape="-185.11,87.38 -190.16,90.37"/>
    </edge>
    <edge id=":J6_40" function="internal">
        <lane id=":J6_40_0" index="0" speed="20.77" length="35.54" shape="-186.78,92.91 -190.82,96.27 -199.58,101.01 -209.12,103.85 -219.45,104.80"/>
    </edge>
    <edge id=":J6_41" function="internal">
        <lane id=":J6_41_0" index="0" speed="20.77" length="35.54" shape="-186.78,92.91 -190.82,96.27 -199.58,101.01 -209.12,103.85 -219.45,104.80"/>
    </edge>
    <edge id=":J6_42" function="internal">
        <lane id=":J6_42_0" index="0" speed="20.13" length="29.49" shape="-191.76,92.91 -192.59,93.60 -200.81,98.04 -209.76,100.71 -219.45,101.60"/>
    </edge>
    <edge id=":J6_43" function="internal">
        <lane id=":J6_43_0" index="0" speed="12.13" length="19.48" shape="-197.57,94.21 -200.00,94.82 -207.44,92.96 -214.89,87.38"/>
    </edge>
    <edge id=":J6_44" function="internal">
        <lane id=":J6_44_0" index="0" speed="8.14" length="17.70" shape="-190.16,90.37 -190.65,90.66 -195.99,90.31 -200.01,86.78 -201.60,80.55"/>
    </edge>
    <edge id=":J6_13" function="internal">
        <lane id=":J6_13_0" index="0" speed="5.47" length="9.74" shape="-195.20,80.55 -194.85,83.64 -193.81,85.06 -192.07,84.79 -189.64,82.85"/>
    </edge>
    <edge id=":J6_14" function="internal">
        <lane id=":J6_14_0" index="0" speed="10.18" length="23.63" shape="-195.20,80.55 -194.28,86.96 -191.54,91.54 -186.96,94.28 -180.55,95.20"/>
        <lane id=":J6_14_1" index="1" speed="11.20" length="28.79" shape="-198.40,80.55 -197.28,88.36 -193.94,93.94 -188.36,97.28 -180.55,98.40"/>
    </edge>
    <edge id=":J6_16" function="internal">
        <lane id=":J6_16_0" index="0" speed="12.13" length="33.95" shape="-198.40,80.55 -199.72,89.76 -203.66,96.34 -210.24,100.28 -219.45,101.60"/>
    </edge>
    <edge id=":J6_17" function="internal">
        <lane id=":J6_17_0" index="0" speed="12.13" length="33.95" shape="-198.40,80.55 -199.72,89.76 -203.66,96.34 -210.24,100.28 -219.45,101.60"/>
    </edge>