<?xml version="1.0" encoding="UTF-8"?>

<!-- generated on 2025-05-12 13:47:45 by Eclipse SUMO netedit Version 1.18.0
-->

<routes xmlns:xsi="http://www.w3.org/2001/XMLSchema-instance" xsi:noNamespaceSchemaLocation="http://sumo.dlr.de/xsd/routes_file.xsd">
    <!-- Routes -->
    <route id="r_0" edges="E10 -E14 E18 -E21 -E4 -E7 -E21 -E9 -E0 E3 E8 E1 E2 E0 -E8 E4 E21 E7 E4 -E20 -E15 -E10 -E6 -E12 -E11 -E14 E18 E19 E16 E6 E19 -E13 E18 -E6 E17 E18 E19 -E13 -E17 E6 -E18 E14 -E10 -E6 -E5 E21 -E6 -E5 -E4 -E3 E0 -E8 E4 E21 E7 E8 -E0 -E2 -E1 -E8 E4 -E9 -E0 -E2 -E1 -E8 -E3 E0 E9 -E4 E8 -E0 -E2 -E1 -E8 -E3 E0 E9 -E4 E8 -E0 -E2 -E1 -E8 -E3 E0 E9 -E4 E8 -E0 -E2 -E1 E9 -E4 E8 E1 E2 E0 E9 E5 -E16 E20 -E9 -E0 -E2 -E1 E9 -E20 E16 -E5 -E20 -E19 -E6 -E16 E20 E5 -E16 -E15 E11 E12 -E16 -E15 E11 E12 -E16 E20 E5 -E12 -E11 E15 E16 -E5 -E20 -E15 -E10 -E18 E14 -E10 E19 -E15 -E14 -E17 E6 -E18 E13 -E19"/>
    <route id="r_1" edges="E17"/>
    <route id="r_2" edges="-E6 -E16 E20 E5 E6 -E18 -E17 -E16 E20 E5 E17"/>
</routes>
