<?xml version="1.0" encoding="UTF-8"?>

<!-- generated on 2025-03-16 19:32:25 by Eclipse SUMO sumo Version 1.21.0
-->

<sumoConfiguration xmlns:xsi="http://www.w3.org/2001/XMLSchema-instance" xsi:noNamespaceSchemaLocation="http://sumo.dlr.de/xsd/sumoConfiguration.xsd">

    <input>
        <net-file value="monza.net.xml"/>
        <route-files value="monza.rou.xml"/>
        <gui-settings-file value="viewsettings.xml"/>
        <start value="true"/>
    </input>

</sumoConfiguration>
