<?xml version="1.0" encoding="UTF-8"?>

<!-- generated on 2025-03-17 16:24:03 by Eclipse SUMO netedit Version 1.21.0
<neteditConfiguration xmlns:xsi="http://www.w3.org/2001/XMLSchema-instance" xsi:noNamespaceSchemaLocation="http://sumo.dlr.de/xsd/neteditConfiguration.xsd">

    <input>
        <route-files value="/home/tiagopr/NamoradaLinda/NPR/eclipse-mosaic-24.1/scenarios/Monza/sumo/monza.rou.xml"/>
        <sumo-net-file value="/home/tiagopr/NamoradaLinda/NPR/eclipse-mosaic-24.1/scenarios/Monza/sumo/monza.net.xml"/>
    </input>

    <output>
        <output-file value="/home/tiagopr/NamoradaLinda/NPR/eclipse-mosaic-24.1/scenarios/Monza/sumo/monza.net.xml"/>
    </output>

    <processing>
        <geometry.min-radius.fix.railways value="false"/>
        <geometry.max-grade.fix value="false"/>
        <offset.disable-normalization value="true"/>
        <lefthand value="0"/>
    </processing>

    <junctions>
        <no-turnarounds value="true"/>
        <junctions.corner-detail value="5"/>
        <junctions.limit-turn-speed value="5.50"/>
        <rectangular-lane-cut value="0"/>
    </junctions>

    <pedestrian>
        <walkingareas value="0"/>
    </pedestrian>

</neteditConfiguration>
-->

<net version="1.20" junctionCornerDetail="5" limitTurnSpeed="5.50" xmlns:xsi="http://www.w3.org/2001/XMLSchema-instance" xsi:noNamespaceSchemaLocation="http://sumo.dlr.de/xsd/net_file.xsd">

    <location netOffset="-522290.86,-5052119.36" convBoundary="-100.00,-500.00,1700.00,300.00" origBoundary="522290.863000,5052119.358000,522290.863000,5052119.358000" projParameter="+proj=utm +zone=32 +ellps=WGS84 +datum=WGS84 +units=m +no_defs"/>

    <edge id=":J0_0" function="internal">
        <lane id=":J0_0_0" index="0" speed="19.16" length="3.04" shape="1.02,4.80 -0.03,4.79 -0.75,4.73 -1.46,4.56 -2.46,4.25"/>
        <lane id=":J0_0_1" index="1" speed="16.23" length="3.04" shape="1.02,1.60 0.27,1.59 -0.25,1.55 -0.75,1.43 -1.46,1.20"/>
    </edge>
    <edge id=":J0_2" function="internal">
        <lane id=":J0_2_0" index="0" speed="40.00" length="1.01" shape="0.52,-4.88 0.66,-4.83 0.77,-4.81 0.87,-4.80 1.02,-4.80"/>
        <lane id=":J0_2_1" index="1" speed="12.64" length="1.01" shape="-0.47,-1.84 -0.04,-1.70 0.26,-1.63 0.57,-1.60 1.02,-1.60"/>
    </edge>
    <edge id=":J1_0" function="internal">
        <lane id=":J1_0_0" index="0" speed="40.00" length="1.09" shape="500.90,4.73 500.53,4.77 500.27,4.79 500.01,4.80 499.64,4.80"/>
        <lane id=":J1_0_1" index="1" speed="40.00" length="1.09" shape="500.54,1.55 500.27,1.58 500.09,1.59 499.91,1.60 499.64,1.60"/>
    </edge>
    <edge id=":J1_2" function="internal">
        <lane id=":J1_2_0" index="0" speed="40.00" length="0.36" shape="499.64,-4.80 499.69,-4.80 499.73,-4.80 499.76,-4.80 499.82,-4.81"/>
        <lane id=":J1_2_1" index="1" speed="40.00" length="0.36" shape="499.64,-1.60 499.80,-1.60 499.91,-1.60 500.02,-1.61 500.18,-1.63"/>
    </edge>
    <edge id=":J11_0" function="internal">
        <lane id=":J11_0_0" index="0" speed="40.00" length="0.10" shape="603.39,-396.61 603.39,-396.61"/>
        <lane id=":J11_0_1" index="1" speed="40.00" length="0.10" shape="601.13,-398.87 601.13,-398.87"/>
    </edge>
    <edge id=":J11_2" function="internal">
        <lane id=":J11_2_0" index="0" speed="40.00" length="0.10" shape="596.61,-403.39 596.61,-403.39"/>
        <lane id=":J11_2_1" index="1" speed="40.00" length="0.10" shape="598.87,-401.13 598.87,-401.13"/>
    </edge>
    <edge id=":J12_0" function="internal">
        <lane id=":J12_0_0" index="0" speed="4.20" length="1.26" shape="702.65,-495.20 702.33,-495.17 702.04,-495.08 701.77,-494.94 701.52,-494.73"/>
        <lane id=":J12_0_1" index="1" speed="6.63" length="3.77" shape="702.65,-498.40 701.69,-498.31 700.81,-498.05 700.00,-497.61 699.26,-496.99"/>
    </edge>
    <edge id=":J12_2" function="internal">
        <lane id=":J12_2_0" index="0" speed="9.84" length="8.80" shape="694.73,-501.52 696.46,-502.95 698.35,-503.98 700.42,-504.59 702.65,-504.80"/>
        <lane id=":J12_2_1" index="1" speed="8.39" length="6.28" shape="696.99,-499.26 698.23,-500.28 699.58,-501.01 701.05,-501.45 702.65,-501.60"/>
    </edge>
    <edge id=":J13_0" function="internal">
        <lane id=":J13_0_0" index="0" speed="40.00" length="0.11" shape="799.92,-495.20 799.88,-495.20"/>
        <lane id=":J13_0_1" index="1" speed="40.00" length="0.11" shape="800.06,-498.40 799.88,-498.40"/>
    </edge>
    <edge id=":J13_2" function="internal">
        <lane id=":J13_2_0" index="0" speed="40.00" length="0.38" shape="799.88,-504.80 800.33,-504.79"/>
        <lane id=":J13_2_1" index="1" speed="40.00" length="0.38" shape="799.88,-501.60 800.19,-501.59"/>
    </edge>
    <edge id=":J14_0" function="internal">
        <lane id=":J14_0_0" index="0" speed="40.00" length="0.85" shape="895.20,-399.15 895.20,-399.27 895.19,-399.36 895.18,-399.44 895.14,-399.57"/>
        <lane id=":J14_0_1" index="1" speed="40.00" length="0.85" shape="898.40,-399.15 898.40,-399.52 898.38,-399.78 898.33,-400.04 898.23,-400.40"/>
    </edge>
    <edge id=":J14_2" function="internal">
        <lane id=":J14_2_0" index="0" speed="40.00" length="2.55" shape="904.41,-402.08 904.63,-401.23 904.75,-400.63 904.79,-400.03 904.80,-399.15"/>
        <lane id=":J14_2_1" index="1" speed="40.00" length="2.55" shape="901.32,-401.24 901.48,-400.63 901.56,-400.21 901.60,-399.78 901.60,-399.15"/>
    </edge>
    <edge id=":J15_0" function="internal">
        <lane id=":J15_0_0" index="0" speed="5.55" length="10.93" shape="895.20,-255.76 894.86,-259.28 893.83,-260.64 892.11,-259.84 889.70,-256.90"/>
    </edge>
    <edge id=":J15_1" function="internal">
        <lane id=":J15_1_0" index="0" speed="40.00" length="49.04" shape="895.20,-255.76 895.20,-304.81"/>
        <lane id=":J15_1_1" index="1" speed="40.00" length="49.04" shape="898.40,-255.76 898.40,-304.81"/>
    </edge>
    <edge id=":J15_3" function="internal">
        <lane id=":J15_3_0" index="0" speed="40.00" length="49.04" shape="904.80,-304.81 904.80,-255.76"/>
        <lane id=":J15_3_1" index="1" speed="40.00" length="49.04" shape="901.60,-304.81 901.60,-255.76"/>
    </edge>
    <edge id=":J15_5" function="internal">
        <lane id=":J15_5_0" index="0" speed="28.53" length="4.74" shape="901.60,-304.81 900.89,-300.12"/>
    </edge>
    <edge id=":J15_9" function="internal">
        <lane id=":J15_9_0" index="0" speed="28.53" length="44.97" shape="900.89,-300.12 900.02,-294.40 896.13,-280.64 891.18,-267.20 886.43,-257.77"/>
    </edge>
    <edge id=":J15_6" function="internal">
        <lane id=":J15_6_0" index="0" speed="28.07" length="48.50" shape="879.87,-259.52 884.64,-268.67 889.65,-281.51 893.60,-294.67 895.20,-304.81"/>
        <lane id=":J15_6_1" index="1" speed="28.30" length="48.50" shape="883.15,-258.65 887.91,-267.94 892.89,-281.07 896.81,-294.54 898.40,-304.81"/>
    </edge>
    <edge id=":J15_8" function="internal">
        <lane id=":J15_8_0" index="0" speed="8.07" length="25.17" shape="883.15,-258.65 888.50,-263.27 894.57,-264.31 899.54,-261.80 901.60,-255.76"/>
    </edge>
    <edge id=":J16_0" function="internal">
        <lane id=":J16_0_0" index="0" speed="10.71" length="5.84" shape="795.20,-198.02 795.24,-200.02 795.48,-201.40 796.07,-202.67 797.16,-204.35"/>
        <lane id=":J16_0_1" index="1" speed="9.12" length="5.84" shape="798.40,-198.02 798.43,-199.45 798.60,-200.43 799.02,-201.34 799.80,-202.54"/>
    </edge>
    <edge id=":J16_2" function="internal">
        <lane id=":J16_2_0" index="0" speed="40.00" length="1.95" shape="805.08,-198.92 804.92,-198.68 804.84,-198.50 804.81,-198.30 804.80,-198.02"/>
        <lane id=":J16_2_1" index="1" speed="7.19" length="1.95" shape="802.44,-200.73 801.97,-200.01 801.72,-199.47 801.62,-198.87 801.60,-198.02"/>
    </edge>
    <edge id=":J17_0" function="internal">
        <lane id=":J17_0_0" index="0" speed="40.00" length="0.50" shape="804.80,-100.17 804.78,-99.58"/>
        <lane id=":J17_0_1" index="1" speed="40.00" length="0.50" shape="801.60,-100.17 801.59,-99.75"/>
    </edge>
    <edge id=":J17_2" function="internal">
        <lane id=":J17_2_0" index="0" speed="40.00" length="0.17" shape="795.20,-100.08 795.20,-100.17"/>
        <lane id=":J17_2_1" index="1" speed="40.00" length="0.17" shape="798.39,-99.92 798.40,-100.17"/>
    </edge>
    <edge id=":J18_0" function="internal">
        <lane id=":J18_0_0" index="0" speed="40.00" length="0.85" shape="700.71,4.76 700.42,4.78 700.21,4.79 700.01,4.80 699.72,4.80"/>
        <lane id=":J18_0_1" index="1" speed="40.00" length="0.85" shape="700.43,1.57 700.22,1.59 700.07,1.60 699.93,1.60 699.72,1.60"/>
    </edge>
    <edge id=":J18_2" function="internal">
        <lane id=":J18_2_0" index="0" speed="40.00" length="0.28" shape="699.72,-4.80 699.76,-4.80 699.79,-4.80 699.82,-4.80 699.86,-4.81"/>
        <lane id=":J18_2_1" index="1" speed="40.00" length="0.28" shape="699.72,-1.60 699.84,-1.60 699.93,-1.60 700.02,-1.61 700.14,-1.62"/>
    </edge>
    <edge id=":J19_0" function="internal">
        <lane id=":J19_0_0" index="0" speed="16.71" length="3.26" shape="601.09,4.80 599.97,4.79 599.20,4.72 598.44,4.53 597.38,4.17"/>
        <lane id=":J19_0_1" index="1" speed="14.17" length="3.26" shape="601.09,1.60 600.29,1.59 599.74,1.54 599.20,1.41 598.44,1.15"/>
    </edge>
    <edge id=":J19_2" function="internal">
        <lane id=":J19_2_0" index="0" speed="40.00" length="1.09" shape="600.56,-4.89 600.71,-4.84 600.82,-4.81 600.93,-4.80 601.09,-4.80"/>
        <lane id=":J19_2_1" index="1" speed="11.05" length="1.09" shape="599.50,-1.87 599.96,-1.72 600.28,-1.64 600.61,-1.60 601.09,-1.60"/>
    </edge>
    <edge id=":J21_0" function="internal">
        <lane id=":J21_0_0" index="0" speed="40.00" length="20.80" shape="695.20,-89.60 695.20,-110.40"/>
        <lane id=":J21_0_1" index="1" speed="40.00" length="20.80" shape="698.40,-89.60 698.40,-110.40"/>
    </edge>
    <edge id=":J21_2" function="internal">
        <lane id=":J21_2_0" index="0" speed="9.26" length="5.01" shape="698.40,-89.60 699.11,-94.56"/>
    </edge>
    <edge id=":J21_8" function="internal">
        <lane id=":J21_8_0" index="0" speed="9.26" length="14.34" shape="699.11,-94.56 699.15,-94.85 701.40,-98.60 705.15,-100.85 710.40,-101.60"/>
    </edge>
    <edge id=":J21_3" function="internal">
        <lane id=":J21_3_0" index="0" speed="6.51" length="9.03" shape="710.40,-95.20 707.95,-94.85 706.20,-93.80 705.15,-92.05 704.80,-89.60"/>
    </edge>
    <edge id=":J21_4" function="internal">
        <lane id=":J21_4_0" index="0" speed="9.26" length="19.35" shape="710.40,-98.40 705.15,-99.15 701.40,-101.40 699.15,-105.15 698.40,-110.40"/>
    </edge>
    <edge id=":J21_5" function="internal">
        <lane id=":J21_5_0" index="0" speed="6.51" length="9.03" shape="704.80,-110.40 705.15,-107.95 706.20,-106.20 707.95,-105.15 710.40,-104.80"/>
    </edge>
    <edge id=":J21_6" function="internal">
        <lane id=":J21_6_0" index="0" speed="40.00" length="20.80" shape="704.80,-110.40 704.80,-89.60"/>
        <lane id=":J21_6_1" index="1" speed="40.00" length="20.80" shape="701.60,-110.40 701.60,-89.60"/>
    </edge>
    <edge id=":J22_0" function="internal">
        <lane id=":J22_0_0" index="0" speed="40.00" length="20.80" shape="1110.40,-95.20 1089.60,-95.20"/>
        <lane id=":J22_0_1" index="1" speed="40.00" length="20.80" shape="1110.40,-98.40 1089.60,-98.40"/>
    </edge>
    <edge id=":J22_2" function="internal">
        <lane id=":J22_2_0" index="0" speed="9.26" length="5.01" shape="1110.40,-98.40 1105.44,-99.11"/>
    </edge>
    <edge id=":J22_8" function="internal">
        <lane id=":J22_8_0" index="0" speed="9.26" length="14.34" shape="1105.44,-99.11 1105.15,-99.15 1101.40,-101.40 1099.15,-105.15 1098.40,-110.40"/>
    </edge>
    <edge id=":J22_3" function="internal">
        <lane id=":J22_3_0" index="0" speed="6.51" length="9.03" shape="1104.80,-110.40 1105.15,-107.95 1106.20,-106.20 1107.95,-105.15 1110.40,-104.80"/>
    </edge>
    <edge id=":J22_4" function="internal">
        <lane id=":J22_4_0" index="0" speed="9.26" length="19.35" shape="1101.60,-110.40 1100.85,-105.15 1098.60,-101.40 1094.85,-99.15 1089.60,-98.40"/>
    </edge>
    <edge id=":J22_5" function="internal">
        <lane id=":J22_5_0" index="0" speed="6.51" length="9.03" shape="1089.60,-104.80 1092.05,-105.15 1093.80,-106.20 1094.85,-107.95 1095.20,-110.40"/>
    </edge>
    <edge id=":J22_6" function="internal">
        <lane id=":J22_6_0" index="0" speed="40.00" length="20.80" shape="1089.60,-104.80 1110.40,-104.80"/>
        <lane id=":J22_6_1" index="1" speed="40.00" length="20.80" shape="1089.60,-101.60 1110.40,-101.60"/>
    </edge>
    <edge id=":J32_0" function="internal">
        <lane id=":J32_0_0" index="0" speed="8.96" length="18.06" shape="906.40,304.80 901.50,304.10 898.00,302.00 895.90,298.50 895.20,293.60"/>
        <lane id=":J32_0_1" index="1" speed="7.66" length="12.90" shape="906.40,301.60 902.90,301.10 900.40,299.60 898.90,297.10 898.40,293.60"/>
    </edge>
    <edge id=":J32_2" function="internal">
        <lane id=":J32_2_0" index="0" speed="3.90" length="2.58" shape="904.80,293.60 904.90,294.30 905.20,294.80 905.70,295.10 906.40,295.20"/>
        <lane id=":J32_2_1" index="1" speed="6.08" length="7.74" shape="901.60,293.60 901.90,295.70 902.80,297.20 904.30,298.10 906.40,298.40"/>
    </edge>
    <edge id=":J34_0" function="internal">
        <lane id=":J34_0_0" index="0" speed="40.00" length="23.11" shape="1105.71,212.50 1101.16,207.90 1097.61,204.04 1094.35,199.94 1090.65,194.63"/>
        <lane id=":J34_0_1" index="1" speed="40.00" length="23.11" shape="1107.98,210.24 1103.48,205.71 1100.07,202.02 1096.95,198.09 1093.32,192.86"/>
    </edge>
    <edge id=":J34_2" function="internal">
        <lane id=":J34_2_0" index="0" speed="8.88" length="5.13" shape="1107.98,210.24 1104.89,206.14"/>
    </edge>
    <edge id=":J34_8" function="internal">
        <lane id=":J34_8_0" index="0" speed="8.88" length="16.96" shape="1104.89,206.14 1104.15,205.15 1103.34,200.54 1105.56,196.43 1110.80,192.81"/>
    </edge>
    <edge id=":J34_3" function="internal">
        <lane id=":J34_3_0" index="0" speed="5.92" length="9.10" shape="1113.67,198.53 1111.51,200.03 1110.59,201.72 1110.92,203.62 1112.50,205.71"/>
    </edge>
    <edge id=":J34_4" function="internal">
        <lane id=":J34_4_0" index="0" speed="10.14" length="21.19" shape="1112.24,195.67 1106.26,197.89 1101.11,198.16 1096.80,196.49 1093.32,192.86"/>
    </edge>
    <edge id=":J34_5" function="internal">
        <lane id=":J34_5_0" index="0" speed="7.70" length="11.81" shape="1098.64,189.31 1100.44,191.04 1102.83,191.72 1105.80,191.36 1109.37,189.95"/>
    </edge>
    <edge id=":J34_6" function="internal">
        <lane id=":J34_6_0" index="0" speed="40.00" length="21.85" shape="1098.64,189.31 1102.15,194.39 1105.00,197.98 1108.13,201.34 1112.50,205.71"/>
        <lane id=":J34_6_1" index="1" speed="40.00" length="21.85" shape="1095.98,191.08 1099.55,196.24 1102.54,200.00 1105.81,203.52 1110.24,207.98"/>
    </edge>
    <edge id=":J35_0" function="internal">
        <lane id=":J35_0_0" index="0" speed="9.00" length="22.73" shape="695.20,-391.12 696.12,-397.61 698.89,-401.55 703.49,-402.92 709.94,-401.75"/>
        <lane id=":J35_0_1" index="1" speed="7.69" length="16.24" shape="698.40,-391.12 699.06,-395.76 701.03,-398.57 704.32,-399.55 708.93,-398.71"/>
    </edge>
    <edge id=":J35_2" function="internal">
        <lane id=":J35_2_0" index="0" speed="3.92" length="3.25" shape="706.91,-392.64 705.98,-392.81 705.33,-392.61 704.93,-392.05 704.80,-391.12"/>
        <lane id=":J35_2_1" index="1" speed="6.10" length="9.74" shape="707.92,-395.67 705.15,-396.18 703.18,-395.59 701.99,-393.90 701.60,-391.12"/>
    </edge>
    <edge id=":J38_0" function="internal">
        <lane id=":J38_0_0" index="0" speed="40.00" length="1.01" shape="1599.48,-95.12 1599.34,-95.17 1599.24,-95.19 1599.13,-95.20 1598.98,-95.20"/>
        <lane id=":J38_0_1" index="1" speed="12.69" length="1.01" shape="1600.47,-98.16 1600.04,-98.30 1599.74,-98.37 1599.43,-98.40 1598.98,-98.40"/>
    </edge>
    <edge id=":J38_2" function="internal">
        <lane id=":J38_2_0" index="0" speed="19.23" length="3.04" shape="1598.98,-104.80 1600.03,-104.79 1600.75,-104.73 1601.45,-104.56 1602.45,-104.25"/>
        <lane id=":J38_2_1" index="1" speed="16.29" length="3.04" shape="1598.98,-101.60 1599.73,-101.59 1600.25,-101.55 1600.75,-101.43 1601.46,-101.21"/>
    </edge>
    <edge id=":J40_0" function="internal">
        <lane id=":J40_0_0" index="0" speed="20.94" length="16.67" shape="1310.40,104.80 1305.68,104.78 1302.41,105.01 1299.29,105.90 1295.03,107.85"/>
        <lane id=":J40_0_1" index="1" speed="21.89" length="16.67" shape="1310.40,101.60 1305.24,101.59 1301.66,101.86 1298.25,102.84 1293.60,104.99"/>
    </edge>
    <edge id=":J40_2" function="internal">
        <lane id=":J40_2_0" index="0" speed="9.26" length="5.03" shape="1310.40,101.60 1305.42,100.89"/>
    </edge>
    <edge id=":J40_8" function="internal">
        <lane id=":J40_8_0" index="0" speed="9.26" length="14.32" shape="1305.42,100.89 1305.15,100.85 1301.40,98.60 1299.15,94.85 1298.40,89.60"/>
    </edge>
    <edge id=":J40_3" function="internal">
        <lane id=":J40_3_0" index="0" speed="6.51" length="9.03" shape="1304.80,89.60 1305.15,92.05 1306.20,93.80 1307.95,94.85 1310.40,95.20"/>
    </edge>
    <edge id=":J40_4" function="internal">
        <lane id=":J40_4_0" index="0" speed="11.11" length="18.31" shape="1301.60,89.60 1301.10,94.83 1299.60,99.14 1297.10,102.53 1293.60,104.99"/>
    </edge>
    <edge id=":J40_5" function="internal">
        <lane id=":J40_5_0" index="0" speed="8.79" length="11.21" shape="1290.74,99.26 1292.69,97.82 1294.08,95.73 1294.92,92.99 1295.20,89.60"/>
    </edge>
    <edge id=":J40_6" function="internal">
        <lane id=":J40_6_0" index="0" speed="23.67" length="19.66" shape="1290.74,99.26 1296.18,96.74 1300.17,95.56 1304.37,95.21 1310.40,95.20"/>
        <lane id=":J40_6_1" index="1" speed="22.80" length="19.66" shape="1292.17,102.13 1297.22,99.79 1300.92,98.70 1304.80,98.40 1310.40,98.40"/>
    </edge>
    <edge id=":J44_0" function="internal">
        <lane id=":J44_0_0" index="0" speed="14.17" length="3.69" shape="1602.94,103.99 1601.75,104.45 1600.91,104.69 1600.03,104.79 1598.76,104.80"/>
        <lane id=":J44_0_1" index="1" speed="12.03" length="3.69" shape="1601.75,101.02 1600.90,101.35 1600.29,101.52 1599.67,101.59 1598.76,101.60"/>
    </edge>
    <edge id=":J44_2" function="internal">
        <lane id=":J44_2_0" index="0" speed="40.00" length="1.23" shape="1598.76,95.20 1598.94,95.20 1599.07,95.18 1599.19,95.15 1599.36,95.08"/>
        <lane id=":J44_2_1" index="1" speed="9.41" length="1.23" shape="1598.76,98.40 1599.31,98.39 1599.68,98.35 1600.04,98.25 1600.55,98.05"/>
    </edge>
    <edge id=":J45_0" function="internal">
        <lane id=":J45_0_0" index="0" speed="10.68" length="5.89" shape="1703.87,-3.48 1704.49,-1.56 1704.73,-0.16 1704.59,1.24 1704.10,3.20"/>
        <lane id=":J45_0_1" index="1" speed="9.10" length="5.89" shape="1700.85,-2.42 1701.30,-1.05 1701.46,-0.05 1701.36,0.95 1701.01,2.35"/>
    </edge>
    <edge id=":J45_2" function="internal">
        <lane id=":J45_2_0" index="0" speed="40.00" length="1.96" shape="1694.84,0.66 1694.91,0.38 1694.93,0.18 1694.90,-0.02 1694.81,-0.30"/>
        <lane id=":J45_2_1" index="1" speed="7.17" length="1.96" shape="1697.93,1.51 1698.14,0.67 1698.20,0.06 1698.10,-0.53 1697.83,-1.36"/>
    </edge>
    <edge id=":J5_0" function="internal">
        <lane id=":J5_0_0" index="0" speed="18.57" length="3.08" shape="-104.52,-98.09 -104.71,-99.14 -104.79,-99.87 -104.75,-100.60 -104.62,-101.66"/>
        <lane id=":J5_0_1" index="1" speed="15.73" length="3.08" shape="-101.38,-98.69 -101.51,-99.44 -101.57,-99.96 -101.54,-100.48 -101.45,-101.24"/>
    </edge>
    <edge id=":J5_2" function="internal">
        <lane id=":J5_2_0" index="0" speed="40.00" length="1.03" shape="-95.11,-100.39 -95.12,-100.24 -95.13,-100.13 -95.12,-100.03 -95.09,-99.88"/>
        <lane id=":J5_2_1" index="1" speed="12.26" length="1.03" shape="-98.28,-100.81 -98.33,-100.36 -98.35,-100.05 -98.32,-99.73 -98.24,-99.28"/>
    </edge>
    <edge id=":J6_0" function="internal">
        <lane id=":J6_0_0" index="0" speed="40.00" length="0.24" shape="0.24,-195.20 0.12,-195.20"/>
        <lane id=":J6_0_1" index="1" speed="40.00" length="0.24" shape="0.24,-198.40 -0.12,-198.39"/>
    </edge>
    <edge id=":J6_2" function="internal">
        <lane id=":J6_2_0" index="0" speed="40.00" length="0.73" shape="-0.61,-204.77 0.24,-204.80"/>
        <lane id=":J6_2_1" index="1" speed="40.00" length="0.73" shape="-0.37,-201.58 0.24,-201.60"/>
    </edge>
    <edge id=":J8_0" function="internal">
        <lane id=":J8_0_0" index="0" speed="9.08" length="14.53" shape="405.95,-203.25 404.40,-199.73 402.09,-197.21 399.02,-195.70 395.21,-195.20"/>
        <lane id=":J8_0_1" index="1" speed="7.76" length="10.38" shape="402.88,-204.15 401.77,-201.63 400.12,-199.84 397.93,-198.76 395.21,-198.40"/>
    </edge>
    <edge id=":J8_2" function="internal">
        <lane id=":J8_2_0" index="0" speed="3.94" length="2.08" shape="395.21,-204.80 395.75,-204.87 396.19,-205.09 396.52,-205.45 396.74,-205.95"/>
        <lane id=":J8_2_1" index="1" speed="6.15" length="6.23" shape="395.21,-201.60 396.84,-201.82 398.16,-202.46 399.15,-203.54 399.81,-205.05"/>
    </edge>
    <edge id=":J9_0" function="internal">
        <lane id=":J9_0_0" index="0" speed="11.35" length="5.06" shape="504.60,-297.82 503.35,-296.61 502.38,-295.88 501.27,-295.40 499.59,-294.92"/>
        <lane id=":J9_0_1" index="1" speed="9.66" length="5.06" shape="502.34,-300.08 501.45,-299.21 500.75,-298.70 499.96,-298.35 498.76,-298.01"/>
    </edge>
    <edge id=":J9_2" function="internal">
        <lane id=":J9_2_0" index="0" speed="40.00" length="1.69" shape="497.10,-304.19 497.34,-304.26 497.50,-304.33 497.64,-304.43 497.82,-304.60"/>
        <lane id=":J9_2_1" index="1" speed="7.60" length="1.69" shape="497.93,-301.10 498.65,-301.31 499.13,-301.51 499.54,-301.82 500.08,-302.34"/>
    </edge>

    <edge id="-E0" from="J1" to="J0" priority="-1">
        <lane id="-E0_0" index="0" speed="40.00" length="498.62" shape="499.64,4.80 1.02,4.80"/>
        <lane id="-E0_1" index="1" speed="40.00" length="498.62" shape="499.64,1.60 1.02,1.60"/>
    </edge>
    <edge id="-E10" from="J12" to="J11" priority="-1">
        <lane id="-E10_0" index="0" speed="40.00" length="138.77" shape="701.52,-494.73 603.39,-396.61"/>
        <lane id="-E10_1" index="1" speed="40.00" length="138.77" shape="699.26,-496.99 601.13,-398.87"/>
    </edge>
    <edge id="-E11" from="J13" to="J12" priority="-1">
        <lane id="-E11_0" index="0" speed="40.00" length="97.23" shape="799.88,-495.20 702.65,-495.20"/>
        <lane id="-E11_1" index="1" speed="40.00" length="97.23" shape="799.88,-498.40 702.65,-498.40"/>
    </edge>
    <edge id="-E12" from="J14" to="J13" priority="-1" shape="900.00,-400.00 893.69,-423.22 877.02,-449.26 858.30,-470.77 840.48,-487.44 820.47,-499.14 800.00,-500.00">
        <lane id="-E12_0" index="0" speed="40.00" length="146.50" shape="895.14,-399.57 889.25,-421.25 873.17,-446.37 854.84,-467.43 837.59,-483.57 819.08,-494.39 799.92,-495.20"/>
        <lane id="-E12_1" index="1" speed="40.00" length="146.50" shape="898.23,-400.40 892.21,-422.56 875.74,-448.30 857.15,-469.66 839.52,-486.15 820.01,-497.56 800.06,-498.40"/>
    </edge>
    <edge id="-E13" from="J15" to="J14" priority="-1">
        <lane id="-E13_0" index="0" speed="40.00" length="94.34" shape="895.20,-304.81 895.20,-399.15"/>
        <lane id="-E13_1" index="1" speed="40.00" length="94.34" shape="898.40,-304.81 898.40,-399.15"/>
    </edge>
    <edge id="-E14" from="J16" to="J15" priority="-1" shape="800.00,-200.00 810.69,-215.58 828.78,-222.44 847.04,-227.15 866.64,-235.53 879.92,-251.09 892.01,-268.78 900.00,-300.00">
        <lane id="-E14_0" index="0" speed="40.00" length="104.41" shape="797.16,-204.35 807.58,-219.54 827.33,-227.02 845.49,-231.71 863.72,-239.50 876.10,-254.01 879.87,-259.52"/>
        <lane id="-E14_1" index="1" speed="40.00" length="104.41" shape="799.80,-202.54 809.65,-216.90 828.30,-223.97 846.52,-228.67 865.67,-236.85 878.65,-252.06 883.15,-258.65"/>
    </edge>
    <edge id="-E15" from="J17" to="J16" priority="-1">
        <lane id="-E15_0" index="0" speed="40.00" length="97.85" shape="795.20,-100.17 795.20,-198.02"/>
        <lane id="-E15_1" index="1" speed="40.00" length="97.85" shape="798.40,-100.17 798.40,-198.02"/>
    </edge>
    <edge id="-E16" from="J18" to="J17" priority="-1" shape="700.00,0.00 724.01,-2.14 750.06,-12.51 774.62,-31.24 790.35,-50.63 798.79,-76.80 800.00,-100.00">
        <lane id="-E16_0" index="0" speed="40.00" length="153.67" shape="699.86,-4.81 722.89,-6.86 747.67,-16.73 771.25,-34.71 786.06,-52.96 794.03,-77.68 795.20,-100.08"/>
        <lane id="-E16_1" index="1" speed="40.00" length="153.67" shape="700.14,-1.62 723.64,-3.71 749.26,-13.92 773.50,-32.40 788.92,-51.41 797.20,-77.09 798.39,-99.92"/>
    </edge>
    <edge id="-E17" from="J19" to="J18" priority="-1">
        <lane id="-E17_0" index="0" speed="40.00" length="98.62" shape="601.09,-4.80 699.72,-4.80"/>
        <lane id="-E17_1" index="1" speed="40.00" length="98.62" shape="601.09,-1.60 699.72,-1.60"/>
    </edge>
    <edge id="-E18" from="J1" to="J19" priority="-1" shape="500.00,0.00 515.49,-1.76 522.86,-13.46 533.43,-19.26 548.72,-18.86 564.30,-12.54 600.00,0.00">
        <lane id="-E18_0" index="0" speed="40.00" length="111.29" shape="499.82,-4.81 512.66,-6.27 519.46,-17.07 532.26,-24.09 549.72,-23.64 566.00,-17.03 600.56,-4.89"/>
        <lane id="-E18_1" index="1" speed="40.00" length="111.29" shape="500.18,-1.63 514.55,-3.26 521.73,-14.66 533.04,-20.87 549.05,-20.45 564.87,-14.04 599.50,-1.87"/>
    </edge>
    <edge id="-E19" from="J8" to="J6" priority="-1">
        <lane id="-E19_0" index="0" speed="40.00" length="394.96" shape="395.21,-195.20 0.24,-195.20"/>
        <lane id="-E19_1" index="1" speed="40.00" length="394.96" shape="395.21,-198.40 0.24,-198.40"/>
    </edge>
    <edge id="-E2" from="J22" to="J21" priority="-1">
        <lane id="-E2_0" index="0" speed="40.00" length="379.20" shape="1089.60,-95.20 710.40,-95.20"/>
        <lane id="-E2_1" index="1" speed="40.00" length="379.20" shape="1089.60,-98.40 710.40,-98.40"/>
    </edge>
    <edge id="-E26" from="J15" to="J32" priority="-1">
        <lane id="-E26_0" index="0" speed="40.00" length="549.36" shape="904.80,-255.76 904.80,293.60"/>
        <lane id="-E26_1" index="1" speed="40.00" length="549.36" shape="901.60,-255.76 901.60,293.60"/>
    </edge>
    <edge id="-E27" from="J34" to="J33" priority="-1">
        <lane id="-E27_0" index="0" speed="40.00" length="350.91" shape="1090.65,194.63 896.01,-97.34"/>
        <lane id="-E27_1" index="1" speed="40.00" length="350.91" shape="1093.32,192.86 898.67,-99.11"/>
    </edge>
    <edge id="-E28" from="J35" to="J21" priority="-1">
        <lane id="-E28_0" index="0" speed="40.00" length="280.72" shape="704.80,-391.12 704.80,-110.40"/>
        <lane id="-E28_1" index="1" speed="40.00" length="280.72" shape="701.60,-391.12 701.60,-110.40"/>
    </edge>
    <edge id="-E29" from="J36" to="J35" priority="-1">
        <lane id="-E29_0" index="0" speed="40.00" length="623.58" shape="1298.48,-195.45 706.91,-392.64"/>
        <lane id="-E29_1" index="1" speed="40.00" length="623.58" shape="1299.49,-198.48 707.92,-395.67"/>
    </edge>
    <edge id="-E30" from="J37" to="J22" priority="-1">
        <lane id="-E30_0" index="0" speed="40.00" length="389.60" shape="1104.80,-500.00 1104.80,-110.40"/>
        <lane id="-E30_1" index="1" speed="40.00" length="389.60" shape="1101.60,-500.00 1101.60,-110.40"/>
    </edge>
    <edge id="-E31" from="J38" to="J22" priority="-1">
        <lane id="-E31_0" index="0" speed="40.00" length="488.58" shape="1598.98,-95.20 1110.40,-95.20"/>
        <lane id="-E31_1" index="1" speed="40.00" length="488.58" shape="1598.98,-98.40 1110.40,-98.40"/>
    </edge>
    <edge id="-E32" from="J39" to="J21" priority="-1">
        <lane id="-E32_0" index="0" speed="40.00" length="289.60" shape="695.20,200.00 695.20,-89.60"/>
        <lane id="-E32_1" index="1" speed="40.00" length="289.60" shape="698.40,200.00 698.40,-89.60"/>
    </edge>
    <edge id="-E33" from="J41" to="J40" priority="-1">
        <lane id="-E33_0" index="0" speed="40.00" length="489.60" shape="1304.80,-400.00 1304.80,89.60"/>
        <lane id="-E33_1" index="1" speed="40.00" length="489.60" shape="1301.60,-400.00 1301.60,89.60"/>
    </edge>
    <edge id="-E34" from="J34" to="J40" priority="-1">
        <lane id="-E34_0" index="0" speed="40.00" length="202.77" shape="1109.37,189.95 1290.74,99.26"/>
        <lane id="-E34_1" index="1" speed="40.00" length="202.77" shape="1110.80,192.81 1292.17,102.13"/>
    </edge>
    <edge id="-E35" from="J42" to="J32" priority="-1">
        <lane id="-E35_0" index="0" speed="40.00" length="693.60" shape="1600.00,304.80 906.40,304.80"/>
        <lane id="-E35_1" index="1" speed="40.00" length="693.60" shape="1600.00,301.60 906.40,301.60"/>
    </edge>
    <edge id="-E36" from="J43" to="J34" priority="-1">
        <lane id="-E36_0" index="0" speed="40.00" length="128.54" shape="1196.61,303.39 1105.71,212.50"/>
        <lane id="-E36_1" index="1" speed="40.00" length="128.54" shape="1198.87,301.13 1107.98,210.24"/>
    </edge>
    <edge id="-E37" from="J44" to="J40" priority="-1">
        <lane id="-E37_0" index="0" speed="40.00" length="288.36" shape="1598.76,104.80 1310.40,104.80"/>
        <lane id="-E37_1" index="1" speed="40.00" length="288.36" shape="1598.76,101.60 1310.40,101.60"/>
    </edge>